Circuit: * C:\daniel\tampere_summer\ltspice_design\differential_stage\differential_stage.asc

WARNING: Node N004 is floating.

Direct Newton iteration for .op point succeeded.

Date: Sun Jul 19 17:08:52 2020
Total elapsed time: 0.386 seconds.

tnom = 27
temp = 27
method = modified trap
totiter = 2103
traniter = 2082
tranpoints = 1042
accept = 1042
rejected = 0
matrix size = 53
fillins = 2
solver = Normal
Matrix Compiler1: 6.40 KB object code size  1.8/1.1/[0.5]
Matrix Compiler2: 6.13 KB object code size  0.8/1.5/[0.8]

