Circuit: * C:\daniel\tampere_summer\ltspice_design\differential_stage\differential_stage.asc

Direct Newton iteration for .op point succeeded.

Date: Mon Jul 06 15:55:11 2020
Total elapsed time: 0.434 seconds.

tnom = 27
temp = 27
method = trap
totiter = 8
traniter = 0
tranpoints = 0
accept = 0
rejected = 0
matrix size = 34
fillins = 0
solver = Normal
Matrix Compiler1:     211 opcodes
Matrix Compiler2: 3.82 KB object code size
