Circuit: * C:\daniel\tampere_summer\ltspice_design\differential_stage\differential_stage.asc

Direct Newton iteration for .op point succeeded.

Date: Sun Jul 05 00:22:31 2020
Total elapsed time: 0.445 seconds.

tnom = 27
temp = 27
method = trap
totiter = 7
traniter = 0
tranpoints = 0
accept = 0
rejected = 0
matrix size = 44
fillins = 0
solver = Normal
Matrix Compiler1:     320 opcodes
Matrix Compiler2: 5.26 KB object code size
