Circuit: * C:\daniel\tampere_summer\ltspice_design\differential_stage\Draft1.asc

