Circuit: * C:\daniel\tampere_summer\ltspice_design\differential_stage\param_estimate.asc

Direct Newton iteration for .op point succeeded.

Date: Mon Jul 13 14:28:33 2020
Total elapsed time: 0.180 seconds.

tnom = 27
temp = 27
method = trap
totiter = 8
traniter = 0
tranpoints = 0
accept = 0
rejected = 0
matrix size = 17
fillins = 0
solver = Normal
Matrix Compiler1: 1.06 KB object code size
Matrix Compiler2: 1.60 KB object code size
